Version 4
SHEET 1 1976 680
WIRE 208 32 16 32
WIRE 480 32 304 32
WIRE 640 32 480 32
WIRE 880 32 720 32
WIRE 1072 32 880 32
WIRE 480 128 480 32
WIRE 16 144 16 32
WIRE 288 160 288 80
WIRE 880 160 880 32
WIRE 1072 160 1072 32
WIRE -448 176 -448 80
WIRE 432 208 416 208
WIRE 480 320 480 224
WIRE 880 320 880 224
WIRE 1072 320 1072 240
WIRE -448 336 -448 256
WIRE 16 336 16 224
FLAG 16 336 0
FLAG 480 320 0
FLAG 880 320 0
FLAG 1072 320 0
FLAG -448 336 0
FLAG -448 80 VPULSE
FLAG 288 160 VPULSE
FLAG 416 208 VPULSE
SYMBOL voltage 16 128 R0
SYMATTR InstName V1
SYMATTR Value 5
SYMBOL ind 624 48 R270
WINDOW 0 32 56 VTop 2
WINDOW 3 5 56 VBottom 2
SYMATTR InstName L1
SYMATTR Value 10µH
SYMBOL cap 864 160 R0
SYMATTR InstName C1
SYMATTR Value 50µF
SYMBOL res 1056 144 R0
SYMATTR InstName R1
SYMATTR Value 1.25
SYMBOL voltage -448 160 R0
WINDOW 123 0 0 Left 0
WINDOW 39 0 0 Left 0
SYMATTR InstName V2
SYMATTR Value PULSE(0 5 0 0 0 5u 10u 0)
SYMBOL pmos 432 128 R0
SYMATTR InstName M1
SYMBOL nmos 208 80 R270
SYMATTR InstName M2
SYMBOL PowerProducts\\ADP2108-1.0 1824 16 R0
SYMATTR InstName U1
TEXT -16 552 Left 2 !.tran 250m startup
