Version 4
SHEET 1 1968 680
WIRE -288 -320 -288 -384
WIRE -160 -320 -160 -384
WIRE -48 -320 -48 -384
WIRE 48 -320 48 -384
WIRE 176 -320 176 -384
WIRE 544 -272 544 -416
WIRE 544 -272 320 -272
WIRE 736 -272 544 -272
WIRE 320 -224 320 -272
WIRE 544 -224 544 -272
WIRE 736 -224 736 -272
WIRE -288 -192 -288 -240
WIRE -160 -192 -160 -240
WIRE -160 -192 -288 -192
WIRE -48 -192 -48 -240
WIRE -48 -192 -160 -192
WIRE 48 -192 48 -240
WIRE 48 -192 -48 -192
WIRE 176 -192 176 -240
WIRE 176 -192 48 -192
WIRE -48 -144 -48 -192
WIRE 496 -144 448 -144
WIRE 752 -128 736 -128
WIRE 1328 -96 1328 -128
WIRE 272 -80 272 -144
WIRE 320 -80 320 -128
WIRE 320 -80 272 -80
WIRE 448 -80 448 -144
WIRE 448 -80 320 -80
WIRE 688 -80 688 -144
WIRE 688 -80 448 -80
WIRE 1296 -80 1264 -80
WIRE 1296 -48 1264 -48
WIRE -272 -16 -272 -48
WIRE -224 -16 -272 -16
WIRE -192 -16 -192 -48
WIRE -192 -16 -224 -16
WIRE 1328 -16 1328 -32
WIRE 752 0 752 -128
WIRE 752 0 608 0
WIRE 1360 0 1360 -64
WIRE 1696 0 1360 0
WIRE 1840 0 1792 0
WIRE 1904 0 1840 0
WIRE -224 16 -224 -16
WIRE 176 32 128 32
WIRE 608 32 608 0
WIRE 176 48 176 32
WIRE 320 48 320 -80
WIRE 752 48 752 0
WIRE 1264 48 1264 -48
WIRE 1264 48 752 48
WIRE 1696 48 1648 48
WIRE 1232 64 816 64
WIRE 128 96 128 32
WIRE 752 96 752 48
WIRE 816 96 816 64
WIRE 96 112 0 112
WIRE 608 112 608 96
WIRE 1344 112 1344 80
WIRE 272 128 160 128
WIRE 1024 128 992 128
WIRE 1088 128 1024 128
WIRE 1264 128 1264 48
WIRE 1312 128 1264 128
WIRE 96 144 64 144
WIRE 1648 144 1648 48
WIRE 1648 144 1376 144
WIRE 1024 160 1024 128
WIRE 1312 160 1280 160
WIRE 688 192 624 192
WIRE 1344 192 1344 176
WIRE 128 208 128 160
WIRE 192 208 192 176
WIRE 192 208 128 208
WIRE 1232 240 1232 64
WIRE 1840 240 1840 0
WIRE 1840 240 1232 240
WIRE 1088 256 1088 128
WIRE 1088 256 992 256
WIRE 64 272 64 144
WIRE 96 272 64 272
WIRE 320 272 320 144
WIRE 320 272 176 272
WIRE -288 288 -288 224
WIRE 544 304 544 -128
WIRE 608 304 544 304
WIRE 704 304 608 304
WIRE 320 336 320 272
WIRE 608 336 608 304
WIRE 784 336 784 288
WIRE 880 336 880 288
WIRE 1184 336 880 336
WIRE 528 416 320 416
WIRE 544 416 544 304
WIRE 560 416 544 416
WIRE 704 416 704 304
WIRE 736 416 704 416
WIRE -288 432 -288 368
WIRE 320 432 320 416
WIRE 528 432 528 416
WIRE 608 432 528 432
WIRE 784 432 608 432
WIRE 1184 432 1184 336
WIRE 1088 448 1088 256
FLAG 608 112 0
FLAG 320 432 0
FLAG 0 112 Vref
FLAG 1264 -80 VH
FLAG 1280 160 VL
FLAG 544 -416 Vdd
FLAG 1088 448 Vss
FLAG 1024 160 0
FLAG 1184 432 Switch
FLAG 1904 0 OSC
FLAG 624 192 Vdd
FLAG -160 -384 Vref
FLAG -48 -384 VH
FLAG 48 -384 VL
FLAG -48 -144 0
FLAG 176 -384 Vdd
FLAG -272 -48 H
FLAG -192 -48 MODE
FLAG -224 16 0
FLAG -288 224 Switch
FLAG -288 432 0
FLAG 1328 -128 Vdd
FLAG 1344 80 Vdd
FLAG 176 48 0
FLAG 1328 -16 0
FLAG 1344 192 0
FLAG -288 -384 Vop
FLAG 192 176 Vop
SYMBOL res 192 256 R90
WINDOW 0 0 56 VBottom 2
WINDOW 3 32 56 VTop 2
SYMATTR InstName R1
SYMATTR Value 10
SYMBOL res 304 320 R0
SYMATTR InstName R2
SYMATTR Value 10
SYMBOL cap 592 32 R0
SYMATTR InstName C1
SYMATTR Value 10
SYMBOL nmos 272 48 R0
SYMATTR InstName M1
SYMATTR Value Si7540DP_N
SYMBOL nmos 736 336 R0
SYMATTR InstName M2
SYMATTR Value Si7540DP_N
SYMBOL Switches\\ADG1633 832 192 R270
SYMATTR InstName U2
SYMBOL pmos 496 -224 R0
SYMATTR InstName M5
SYMATTR Value Si7540DP_P
SYMBOL pmos 688 -224 R0
SYMATTR InstName M6
SYMATTR Value Si7540DP_P
SYMBOL Digital\\srflop 1744 -48 R0
SYMATTR InstName A2
SYMATTR Value2 Vhigh=12 Vlow=0
SYMATTR SpiceLine Trise=5n Tfall=5n Td=5n
SYMBOL voltage -48 -336 R0
WINDOW 123 0 0 Left 0
WINDOW 39 0 0 Left 0
SYMATTR InstName V1
SYMATTR Value 11.38
SYMBOL voltage 48 -336 R0
WINDOW 123 0 0 Left 0
WINDOW 39 0 0 Left 0
SYMATTR InstName V2
SYMATTR Value 11.31
SYMBOL voltage -160 -336 R0
WINDOW 123 0 0 Left 0
WINDOW 39 0 0 Left 0
SYMATTR InstName V3
SYMATTR Value PULSE(0 12 0 0 0 0.5 1)
SYMBOL voltage 176 -336 R0
WINDOW 123 0 0 Left 0
WINDOW 39 0 0 Left 0
SYMATTR InstName V4
SYMATTR Value 12
SYMBOL voltage -288 272 R0
WINDOW 123 0 0 Left 0
WINDOW 39 0 0 Left 0
SYMATTR InstName V5
SYMATTR Value PULSE(0 5 0 0 0 1 2 1000)
SYMBOL Opamps\\OP07 128 192 M180
SYMATTR InstName U3
SYMBOL Opamps\\OP07 1328 -128 R0
SYMATTR InstName U4
SYMBOL Opamps\\OP07 1344 80 R0
SYMATTR InstName U5
SYMBOL voltage -288 -336 R0
WINDOW 123 0 0 Left 0
WINDOW 39 0 0 Left 0
SYMATTR InstName V6
SYMATTR Value 12
SYMBOL nmos 560 336 R0
SYMATTR InstName M3
SYMBOL pmos 272 -224 R0
SYMATTR InstName M4
TEXT -304 560 Left 2 !.tran 10
