Version 4
SHEET 1 1968 680
WIRE 544 -400 544 -416
WIRE 1296 -400 544 -400
WIRE 1296 -368 1296 -400
WIRE 1216 -320 880 -320
WIRE 1440 -320 1376 -320
WIRE 544 -272 544 -400
WIRE 544 -272 320 -272
WIRE 736 -272 544 -272
WIRE 1216 -272 880 -272
WIRE 320 -224 320 -272
WIRE 544 -224 544 -272
WIRE 736 -224 736 -272
WIRE 448 -208 368 -208
WIRE 1296 -176 1296 -224
WIRE 1840 -176 1296 -176
WIRE 448 -144 448 -208
WIRE 496 -144 448 -144
WIRE 752 -128 736 -128
WIRE 320 -80 320 -128
WIRE 448 -80 448 -144
WIRE 448 -80 320 -80
WIRE 688 -80 688 -144
WIRE 688 -80 448 -80
WIRE 1296 -80 1264 -80
WIRE 1296 -48 1264 -48
WIRE 1440 -16 1440 -320
WIRE 1472 -16 1440 -16
WIRE 752 0 752 -128
WIRE 752 0 608 0
WIRE 1360 0 1360 -64
WIRE 1472 0 1360 0
WIRE 1696 0 1536 0
WIRE 1840 0 1840 -176
WIRE 1840 0 1792 0
WIRE 1904 0 1840 0
WIRE 608 32 608 0
WIRE 320 48 320 -80
WIRE 752 48 752 0
WIRE 1264 48 1264 -48
WIRE 1264 48 752 48
WIRE 1696 48 1648 48
WIRE 1232 64 816 64
WIRE 1184 80 880 80
WIRE 752 96 752 48
WIRE 816 96 816 64
WIRE 880 96 880 80
WIRE 96 112 0 112
WIRE 608 112 608 96
WIRE 272 128 160 128
WIRE 1024 128 992 128
WIRE 1264 128 1264 48
WIRE 1312 128 1264 128
WIRE 96 144 64 144
WIRE 1648 144 1648 48
WIRE 1648 144 1376 144
WIRE 1024 160 1024 128
WIRE 1312 160 1280 160
WIRE 1232 240 1232 64
WIRE 1840 240 1840 0
WIRE 1840 240 1232 240
WIRE 1088 256 992 256
WIRE 64 272 64 144
WIRE 96 272 64 272
WIRE 320 272 320 144
WIRE 320 272 176 272
WIRE 544 304 544 -128
WIRE 608 304 544 304
WIRE 704 304 608 304
WIRE 320 336 320 272
WIRE 608 336 608 304
WIRE 784 336 784 288
WIRE 704 352 704 304
WIRE 704 352 656 352
WIRE 528 416 320 416
WIRE 704 416 704 352
WIRE 736 416 704 416
WIRE 320 432 320 416
WIRE 528 432 528 416
WIRE 608 432 528 432
WIRE 784 432 608 432
WIRE 1184 432 1184 80
WIRE 1088 448 1088 256
FLAG 608 112 0
FLAG 320 432 0
FLAG 0 112 Vref
FLAG 1264 -80 VH
FLAG 1280 160 VL
FLAG 880 -320 H
FLAG 880 -272 MODE
FLAG 544 -416 Vss
FLAG 1088 448 Vss
FLAG 1024 160 0
FLAG 1184 432 Switch
FLAG 1904 0 OSC
SYMBOL res 192 256 R90
WINDOW 0 0 56 VBottom 2
WINDOW 3 32 56 VTop 2
SYMATTR InstName R1
SYMATTR Value R0
SYMBOL res 304 320 R0
SYMATTR InstName R2
SYMATTR Value Rt
SYMBOL cap 592 32 R0
SYMATTR InstName C1
SYMBOL Opamps\\opamp 128 192 M180
SYMATTR InstName U1
SYMBOL Opamps\\opamp 1328 -128 R0
SYMATTR InstName COMP1
SYMBOL Opamps\\opamp 1344 80 R0
SYMATTR InstName COMP2
SYMBOL Digital\\or 1504 -48 R0
SYMATTR InstName A1
SYMBOL nmos 272 48 R0
SYMATTR InstName M1
SYMBOL nmos 736 336 R0
SYMATTR InstName M2
SYMBOL nmos 656 432 R180
SYMATTR InstName M3
SYMBOL Switches\\ADG1633 832 192 R270
SYMATTR InstName U2
SYMBOL pmos 368 -128 R180
SYMATTR InstName M4
SYMBOL pmos 496 -224 R0
SYMATTR InstName M5
SYMBOL pmos 688 -224 R0
SYMATTR InstName M6
SYMBOL Digital\\srflop 1744 -48 R0
SYMATTR InstName A2
SYMBOL Digital\\dflop 1296 -368 R0
SYMATTR InstName A3
