Version 4
SHEET 1 2352 900
WIRE 80 -272 -176 -272
WIRE 368 -272 160 -272
WIRE 912 -272 368 -272
WIRE 960 -272 912 -272
WIRE 1120 -272 1056 -272
WIRE 1376 -272 1120 -272
WIRE 1568 -272 1376 -272
WIRE 1040 -192 1040 -224
WIRE 1040 -192 240 -192
WIRE 1376 -176 1376 -272
WIRE 368 -144 368 -272
WIRE 464 -144 368 -144
WIRE 912 -144 912 -272
WIRE 368 -112 368 -144
WIRE 464 -112 464 -144
WIRE 528 -112 464 -112
WIRE 1120 -80 1120 -272
WIRE 1120 -80 1024 -80
WIRE 1568 -80 1568 -272
WIRE 736 -64 672 -64
WIRE 1376 -64 1376 -112
WIRE 240 -48 240 -192
WIRE 240 -48 128 -48
WIRE 320 -32 128 -32
WIRE 912 -32 912 -64
WIRE 1024 -32 1024 -80
WIRE 368 0 368 -16
WIRE 528 0 368 0
WIRE 368 32 368 0
WIRE 112 96 112 0
WIRE 800 96 112 96
WIRE 976 128 976 112
WIRE 976 128 272 128
WIRE 800 208 800 96
WIRE 1056 208 800 208
WIRE 1376 208 1200 208
WIRE 736 224 736 -64
WIRE 736 224 512 224
WIRE 2096 224 2096 160
WIRE 2304 224 2304 160
WIRE 64 240 64 0
WIRE 112 240 112 96
WIRE 272 256 272 128
WIRE 272 256 144 256
WIRE -1072 272 -1072 144
WIRE 368 272 144 272
WIRE 592 336 512 336
WIRE 2096 352 2096 304
WIRE 2304 352 2304 304
WIRE -1072 432 -1072 352
WIRE 896 432 512 432
WIRE 128 496 128 304
WIRE 368 496 128 496
WIRE 1424 496 1328 496
WIRE 736 512 736 224
WIRE 704 544 512 544
WIRE 896 544 896 432
WIRE 1072 544 896 544
WIRE 1120 544 1120 256
WIRE 1120 544 1072 544
WIRE 1184 544 1120 544
WIRE 80 592 80 304
WIRE 896 592 896 544
WIRE 1072 592 1072 544
WIRE 1408 608 1328 608
WIRE 1568 608 1568 0
WIRE 1568 608 1408 608
WIRE 336 640 160 640
WIRE 736 640 736 576
WIRE 736 640 464 640
WIRE 1568 720 1568 608
WIRE 896 736 896 656
WIRE 1072 816 1072 768
WIRE 1200 816 1072 816
WIRE 1408 816 1408 608
WIRE 1408 816 1264 816
WIRE 896 880 896 816
WIRE 1568 880 1568 800
FLAG 368 32 0
FLAG 896 880 0
FLAG 1568 880 0
FLAG 1376 -64 0
FLAG 1376 208 MODE
FLAG 1424 496 1.25V
FLAG 592 336 2.8A
FLAG 368 -272 SW
FLAG -1072 432 0
FLAG -176 -272 Vin
FLAG 1568 -272 Vout
FLAG 2096 352 0
FLAG 2304 352 0
FLAG 2304 160 2.8A
FLAG 2096 160 1.25V
FLAG -1072 144 Vin
SYMBOL ind 64 -256 R270
WINDOW 0 32 56 VTop 2
WINDOW 3 5 56 VBottom 2
SYMATTR InstName L1
SYMATTR Value 2.2µH
SYMBOL anticross_cond 64 -32 R0
SYMATTR InstName X1
SYMBOL Current_comp 448 496 R180
SYMATTR InstName X2
SYMBOL Current_limit_comp 448 272 M0
SYMATTR InstName X3
SYMBOL Error_amp 1264 544 M0
SYMATTR InstName X4
SYMBOL ISENSE_AMP 592 -64 R0
SYMATTR InstName X5
SYMBOL IZERO_AMP 976 32 R90
SYMATTR InstName X6
SYMBOL OSC 96 624 R0
SYMATTR InstName X7
SYMBOL PWM_Logic 80 272 R0
SYMATTR InstName X8
SYMBOL SLOPE_COMP 400 640 R0
SYMATTR InstName X9
SYMBOL sum 736 544 R0
SYMATTR InstName X10
SYMBOL pmos 960 -224 R270
SYMATTR InstName M1
SYMATTR Value ""
SYMBOL cap 1360 -176 R0
SYMATTR InstName C1
SYMATTR Value 44µF
SYMBOL cap 1264 800 R90
WINDOW 0 0 32 VBottom 2
WINDOW 3 32 32 VTop 2
SYMATTR InstName C2
SYMATTR Value 47µF
SYMBOL cap 880 592 R0
SYMATTR InstName C3
SYMBOL res 1552 -96 R0
SYMATTR InstName R1
SYMBOL res 1552 704 R0
SYMATTR InstName R2
SYMBOL res 880 720 R0
SYMATTR InstName R3
SYMBOL nmos 320 -112 R0
SYMATTR InstName M0
SYMATTR Value ""
SYMBOL switch 1088 672 R90
SYMATTR InstName X12
SYMBOL Misc\\battery 912 -160 R0
SYMATTR InstName V2
SYMATTR Value 10mV
SYMBOL bust_mode_control 1120 208 R0
SYMATTR InstName X11
SYMBOL voltage -1072 256 R0
SYMATTR InstName V1
SYMATTR Value 1.2
SYMBOL voltage 2096 208 R0
SYMATTR InstName V3
SYMATTR Value 1.25V
SYMBOL current 2304 304 R180
WINDOW 0 24 80 Left 2
WINDOW 3 24 0 Left 2
SYMATTR InstName I1
SYMATTR Value 2.8A
TEXT 600 8 Left 2 ;ISENSE\nAMP
TEXT 1040 48 Left 2 ;IZERO\nAMP
TEXT 328 328 Left 2 ;Current\nLimit Comp
TEXT 312 536 Left 2 ;Current\nComp
TEXT 1184 600 Left 2 ;Error\nAMP
