Version 4
SHEET 1 2352 900
WIRE 80 -272 -176 -272
WIRE 368 -272 160 -272
WIRE 912 -272 368 -272
WIRE 960 -272 912 -272
WIRE 1120 -272 1056 -272
WIRE 1376 -272 1120 -272
WIRE 1568 -272 1376 -272
WIRE 1040 -192 1040 -224
WIRE 1040 -192 240 -192
WIRE 1376 -176 1376 -272
WIRE 368 -144 368 -272
WIRE 464 -144 368 -144
WIRE 912 -144 912 -272
WIRE 368 -112 368 -144
WIRE 464 -112 464 -144
WIRE 528 -112 464 -112
WIRE 608 -96 608 -128
WIRE 528 -80 528 -112
WIRE 576 -80 528 -80
WIRE 1120 -80 1120 -272
WIRE 1120 -80 1024 -80
WIRE 1568 -80 1568 -272
WIRE 736 -64 640 -64
WIRE 1376 -64 1376 -112
WIRE 240 -48 240 -192
WIRE 240 -48 128 -48
WIRE 576 -48 528 -48
WIRE 320 -32 128 -32
WIRE 912 -32 912 -64
WIRE 960 -32 912 -32
WIRE 1024 -32 1024 -80
WIRE 1024 -32 992 -32
WIRE 368 0 368 -16
WIRE 528 0 528 -48
WIRE 528 0 368 0
WIRE 960 0 960 -32
WIRE 992 0 992 -32
WIRE 608 16 608 -32
WIRE 368 32 368 0
WIRE 944 32 912 32
WIRE 1040 32 1008 32
WIRE 112 96 112 0
WIRE 800 96 112 96
WIRE 976 128 976 64
WIRE 976 128 272 128
WIRE 800 208 800 96
WIRE 1056 208 800 208
WIRE 1376 208 1200 208
WIRE 736 224 736 -64
WIRE 736 224 512 224
WIRE 2096 224 2096 160
WIRE 2304 224 2304 160
WIRE 64 240 64 0
WIRE 112 240 112 96
WIRE 432 240 432 208
WIRE 272 256 272 128
WIRE 272 256 144 256
WIRE 512 256 512 224
WIRE 512 256 464 256
WIRE -1072 272 -1072 144
WIRE -880 272 -880 224
WIRE -672 272 -672 224
WIRE 400 272 144 272
WIRE 512 288 464 288
WIRE 432 336 432 304
WIRE 448 336 432 336
WIRE 512 336 512 288
WIRE 592 336 512 336
WIRE 2096 352 2096 304
WIRE 2304 352 2304 304
WIRE -1072 432 -1072 352
WIRE -880 432 -880 352
WIRE -672 432 -672 352
WIRE 896 432 512 432
WIRE 432 464 432 432
WIRE 512 480 512 432
WIRE 512 480 464 480
WIRE 128 496 128 304
WIRE 400 496 128 496
WIRE 1424 496 1328 496
WIRE 512 512 464 512
WIRE 736 512 736 224
WIRE 1248 512 1248 480
WIRE 1328 528 1328 496
WIRE 1328 528 1280 528
WIRE 512 544 512 512
WIRE 704 544 512 544
WIRE 896 544 896 432
WIRE 1072 544 896 544
WIRE 1120 544 1120 256
WIRE 1120 544 1072 544
WIRE 1216 544 1120 544
WIRE 432 560 432 528
WIRE 1328 560 1280 560
WIRE 80 592 80 304
WIRE 896 592 896 544
WIRE 1072 592 1072 544
WIRE 1328 608 1328 560
WIRE 1408 608 1328 608
WIRE 1568 608 1568 0
WIRE 1568 608 1408 608
WIRE 1248 624 1248 576
WIRE 1568 720 1568 608
WIRE 416 736 320 736
WIRE 896 736 896 656
WIRE 320 768 320 736
WIRE 320 768 256 768
WIRE 736 768 736 576
WIRE 736 768 576 768
WIRE 1072 816 1072 768
WIRE 1200 816 1072 816
WIRE 1408 816 1408 608
WIRE 1408 816 1264 816
WIRE 896 880 896 816
WIRE 1568 880 1568 800
FLAG 368 32 0
FLAG 896 880 0
FLAG 1568 880 0
FLAG 1376 -64 0
FLAG 1376 208 MODE
FLAG 1424 496 1.25V
FLAG 592 336 2.8A
FLAG 368 -272 SW
FLAG -1072 432 0
FLAG -176 -272 Vin
FLAG 1568 -272 Vout
FLAG 2096 352 0
FLAG 2304 352 0
FLAG 2304 160 2.8A
FLAG 2096 160 1.25V
FLAG -1072 144 Vin
FLAG -880 432 0
FLAG -672 432 0
FLAG -880 224 +15V
FLAG 608 16 +15V
FLAG 432 432 +15V
FLAG 912 32 +15V
FLAG 1248 624 +15V
FLAG -672 224 -15V
FLAG 608 -128 -15V
FLAG 432 208 -15V
FLAG 432 560 -15V
FLAG 1248 480 -15V
FLAG 1040 32 -15V
FLAG 448 336 +15V
SYMBOL ind 64 -256 R270
WINDOW 0 32 56 VTop 2
WINDOW 3 5 56 VBottom 2
SYMATTR InstName L1
SYMATTR Value 2.2µH
SYMBOL anticross_cond 64 -32 R0
SYMATTR InstName X1
SYMBOL PWM_Logic 80 272 R0
SYMATTR InstName X8
SYMBOL sum 736 544 R0
SYMATTR InstName X10
SYMBOL pmos 960 -224 R270
SYMATTR InstName M1
SYMATTR Value ""
SYMBOL cap 1360 -176 R0
SYMATTR InstName C1
SYMATTR Value 44µF
SYMBOL cap 1264 800 R90
WINDOW 0 0 32 VBottom 2
WINDOW 3 32 32 VTop 2
SYMATTR InstName C2
SYMATTR Value 47µF
SYMBOL cap 880 592 R0
SYMATTR InstName C3
SYMBOL res 1552 -96 R0
SYMATTR InstName R1
SYMBOL res 1552 704 R0
SYMATTR InstName R2
SYMBOL res 880 720 R0
SYMATTR InstName R3
SYMBOL nmos 320 -112 R0
SYMATTR InstName M0
SYMATTR Value ""
SYMBOL switch 1088 672 R90
SYMATTR InstName X12
SYMBOL Misc\\battery 912 -160 R0
SYMATTR InstName V2
SYMATTR Value 10mV
SYMBOL bust_mode_control 1120 208 R0
SYMATTR InstName X11
SYMBOL voltage -1072 256 R0
SYMATTR InstName V1
SYMATTR Value 1.2
SYMBOL voltage 2096 208 R0
SYMATTR InstName V3
SYMATTR Value 1.25V
SYMBOL current 2304 304 R180
WINDOW 0 24 80 Left 2
WINDOW 3 24 0 Left 2
SYMATTR InstName I1
SYMATTR Value 2.8A
SYMBOL slope_comp 496 768 R0
SYMATTR InstName X13
SYMBOL osc_ramp 160 768 R0
SYMATTR InstName X7
SYMBOL Opamps\\AD549 608 0 M180
SYMATTR InstName U1
SYMBOL Opamps\\AD549 912 32 M90
SYMATTR InstName U2
SYMBOL Opamps\\AD549 1248 608 R180
SYMATTR InstName U3
SYMBOL Opamps\\AD549 432 432 M0
SYMATTR InstName U4
SYMBOL Opamps\\AD549 432 336 R180
SYMATTR InstName U5
SYMBOL voltage -880 256 R0
SYMATTR InstName V4
SYMATTR Value 15
SYMBOL voltage -672 368 R180
WINDOW 0 24 96 Left 2
WINDOW 3 24 16 Left 2
SYMATTR InstName V5
SYMATTR Value 15
TEXT 640 -152 Left 2 ;ISENSE\nAMP
TEXT 1032 72 Left 2 ;IZERO\nAMP
TEXT 280 304 Left 2 ;Current\nLimit Comp
TEXT 304 552 Left 2 ;Current\nComp
TEXT 1152 592 Left 2 ;Error\nAMP
