Version 4
SHEET 1 880 680
WIRE 336 48 336 -48
WIRE 736 48 736 -48
WIRE 336 160 336 128
WIRE 336 160 -16 160
WIRE 736 160 736 128
WIRE 336 176 336 160
WIRE -16 208 -16 160
WIRE 32 208 -16 208
WIRE 272 224 96 224
WIRE 32 240 -144 240
WIRE 272 256 272 224
WIRE 288 256 272 256
WIRE 592 272 560 272
WIRE 688 288 688 240
WIRE 688 288 656 288
WIRE 592 304 448 304
WIRE 560 336 560 272
WIRE 736 336 736 256
WIRE 736 336 560 336
WIRE 336 352 336 272
WIRE 336 352 -16 352
WIRE 336 384 336 352
WIRE 736 384 736 336
WIRE 32 416 -144 416
WIRE 256 432 96 432
WIRE -16 448 -16 352
WIRE 32 448 -16 448
WIRE 256 464 256 432
WIRE 288 464 256 464
WIRE 256 544 256 464
WIRE 688 544 688 464
WIRE 688 544 256 544
WIRE 336 592 336 480
WIRE 736 592 736 480
FLAG 336 592 0
FLAG 736 592 0
FLAG 448 304 Vcap
FLAG 336 -48 Vout
IOPIN 336 -48 Out
FLAG 736 -48 Vc
IOPIN 736 -48 In
FLAG -144 240 Vin
IOPIN -144 240 In
FLAG -144 416 Vref
IOPIN -144 416 In
SYMBOL res 320 32 R0
SYMATTR InstName R1
SYMATTR Value R1
SYMBOL res 720 32 R0
SYMATTR InstName R2
SYMATTR Value Rs
SYMBOL Opamps\\opamp 64 160 R0
SYMATTR InstName AMP1
SYMBOL Opamps\\opamp 64 368 R0
SYMATTR InstName AMP2
SYMBOL Opamps\\opamp 624 224 R0
SYMATTR InstName M4
SYMBOL pmos 288 176 R0
SYMATTR InstName M1
SYMBOL nmos 288 384 R0
SYMATTR InstName M2
SYMBOL nmos 688 384 R0
SYMATTR InstName M3
SYMBOL nmos 688 160 R0
SYMATTR InstName M5
